<?xml version="1.0" encoding="UTF-8"?>

<!-- generated on 2025-02-25 17:03:56.885568 by randomTrips.py UNKNOWN
<configuration>
    <net-file value="swansea/swansea.net.xml"/>
    <end value="50.0"/>
</configuration>
-->

<routes xmlns:xsi="http://www.w3.org/2001/XMLSchema-instance" xsi:noNamespaceSchemaLocation="http://sumo.dlr.de/xsd/routes_file.xsd">
    <trip id="0" depart="0.00" from="22650787#0" to="-123699313#0"/>
    <trip id="1" depart="1.00" from="-306492913#0" to="-23172897#0"/>
    <trip id="2" depart="2.00" from="23583312#1" to="22885401#1"/>
    <trip id="3" depart="3.00" from="745534428" to="-13851237#1"/>
    <trip id="4" depart="4.00" from="1217914837" to="-123699344#1"/>
    <trip id="5" depart="5.00" from="-23029165" to="13763475#0"/>
    <trip id="6" depart="6.00" from="-123699344#1" to="-22963000#0"/>
    <trip id="7" depart="7.00" from="22677529#1" to="14360093#2"/>
    <trip id="8" depart="8.00" from="-23029167#3" to="17238246#0"/>
    <trip id="9" depart="9.00" from="37873038#3" to="-11089071#1"/>
    <trip id="10" depart="10.00" from="37873037#1" to="22974101#4"/>
    <trip id="11" depart="11.00" from="-831851224#1" to="-22650820#1"/>
    <trip id="12" depart="12.00" from="925611368#0" to="-936407794"/>
    <trip id="13" depart="13.00" from="-13851237#7" to="-13860630"/>
    <trip id="14" depart="14.00" from="44168233#1" to="17343940#1"/>
    <trip id="15" depart="15.00" from="37873038#1" to="23554170#0"/>
    <trip id="16" depart="16.00" from="13851237#8" to="936407802#1"/>
    <trip id="17" depart="17.00" from="10305523" to="15243952#1"/>
    <trip id="18" depart="18.00" from="41432519#1" to="19869689#2"/>
    <trip id="19" depart="19.00" from="52856856#1" to="158827838#4"/>
    <trip id="20" depart="20.00" from="23029167#1" to="-13449572#1"/>
    <trip id="21" depart="21.00" from="-23160026#1" to="-40567918#1"/>
    <trip id="22" depart="22.00" from="-13763475#2" to="-23949805#1"/>
    <trip id="23" depart="23.00" from="-14029429#2" to="-37873036#2"/>
    <trip id="24" depart="24.00" from="21553911#1" to="101453751#4"/>
    <trip id="25" depart="25.00" from="-957264362#2" to="-23029167#1"/>
    <trip id="26" depart="26.00" from="-27390599#6" to="846740177#0"/>
    <trip id="27" depart="27.00" from="22652401" to="19532368#0"/>
    <trip id="28" depart="28.00" from="-22772327#0" to="23554170#0"/>
    <trip id="29" depart="29.00" from="-22752261#0" to="11089071#0"/>
    <trip id="30" depart="30.00" from="9527214#1" to="22733438#1"/>
    <trip id="31" depart="31.00" from="14360093#1" to="22885405#8"/>
    <trip id="32" depart="32.00" from="44167796#3" to="27390599#5"/>
    <trip id="33" depart="33.00" from="-23160026#2" to="-123723623#1"/>
    <trip id="34" depart="34.00" from="-44168233#2" to="-306492918#2"/>
    <!-- <trip id="35" depart="35.00" from="-22963000#8" to="846740185#2"/> -->
    <trip id="36" depart="36.00" from="71764022#2" to="-5666764#2"/>
    <trip id="37" depart="37.00" from="22751938#0" to="11362091#0"/>
    <trip id="38" depart="38.00" from="837587665#0" to="13449572#3"/>
    <trip id="39" depart="39.00" from="-27390599#2" to="-27390597#3"/>
    <trip id="40" depart="40.00" from="15219111" to="-30091060#1"/>
    <trip id="41" depart="41.00" from="158827838#0" to="745534441"/>
    <trip id="42" depart="42.00" from="11359644#0" to="-23160026#1"/>
    <trip id="43" depart="43.00" from="957264362#2" to="13768372"/>
    <trip id="44" depart="44.00" from="-13851237#3" to="-13449572#3"/>
    <trip id="45" depart="45.00" from="-15243952#1" to="21553911#2"/>
    <trip id="46" depart="46.00" from="306492914#0" to="123934092"/>
    <trip id="47" depart="47.00" from="-13636657#2" to="11089071#3"/>
    <trip id="48" depart="48.00" from="957264361#0" to="14029231"/>
    <trip id="49" depart="49.00" from="93667462" to="52856856#1"/>
</routes>
