<?xml version="1.0" encoding="UTF-8"?>

<!-- generated on 2025-02-26 14:00:33.514956 by randomTrips.py UNKNOWN
<configuration>
    <net-file value="swansea/swansea.net.xml"/>
    <additional-files value="swansea/vtypes.add.xml"/>
    <vehicle-class value="passenger"/>
    <validate value="True"/>
    <end value="10000.0"/>
</configuration>
-->

<!-- generated on 2025-02-26 14:00:32 by Eclipse SUMO duarouter Version 1.22.0
<duarouterConfiguration xmlns:xsi="http://www.w3.org/2001/XMLSchema-instance" xsi:noNamespaceSchemaLocation="http://sumo.dlr.de/xsd/duarouterConfiguration.xsd">

    <input>
        <net-file value="swansea/swansea.net.xml"/>
        <additional-files value="swansea/vtypes.add.xml"/>
        <route-files value="trips.trips.xml"/>
    </input>

    <output>
        <output-file value="trips.trips.xml.tmp"/>
        <alternatives-output value="NUL"/>
        <write-trips value="true"/>
    </output>

    <time>
        <begin value="0"/>
        <end value="10000.0"/>
    </time>

    <report>
        <no-warnings value="true"/>
        <ignore-errors value="true"/>
        <no-step-log value="true"/>
    </report>

</duarouterConfiguration>
-->

<routes xmlns:xsi="http://www.w3.org/2001/XMLSchema-instance" xsi:noNamespaceSchemaLocation="http://sumo.dlr.de/xsd/routes_file.xsd">
    <vType id="passenger" vClass="passenger"/>
    <trip id="0" type="passenger" depart="0.00" from="22650787#0" to="-123699313#0"/>
    <trip id="1" type="passenger" depart="1.00" from="-306492913#0" to="-23172897#0"/>
    <trip id="2" type="passenger" depart="2.00" from="23583312#1" to="22885401#1"/>
    <trip id="3" type="passenger" depart="3.00" from="745534428" to="-13851237#1"/>
    <trip id="4" type="passenger" depart="4.00" from="1217914837" to="-123699344#1"/>
    <trip id="5" type="passenger" depart="5.00" from="-23029165" to="13763475#0"/>
    <trip id="6" type="passenger" depart="6.00" from="-123699344#1" to="-22963000#0"/>
    <trip id="7" type="passenger" depart="7.00" from="22677529#1" to="14360093#2"/>
    <trip id="8" type="passenger" depart="8.00" from="-23029167#3" to="17238246#0"/>
    <trip id="9" type="passenger" depart="9.00" from="37873038#3" to="-11089071#1"/>
    <trip id="10" type="passenger" depart="10.00" from="37873037#1" to="22974101#4"/>
    <trip id="11" type="passenger" depart="11.00" from="-831851224#1" to="-22650820#1"/>
    <trip id="12" type="passenger" depart="12.00" from="925611368#0" to="-936407794"/>
    <trip id="13" type="passenger" depart="13.00" from="-13851237#7" to="-13860630"/>
    <trip id="14" type="passenger" depart="14.00" from="44168233#1" to="17343940#1"/>
    <trip id="15" type="passenger" depart="15.00" from="37873038#1" to="23554170#0"/>
    <trip id="16" type="passenger" depart="16.00" from="13851237#8" to="936407802#1"/>
    <trip id="17" type="passenger" depart="17.00" from="10305523" to="15243952#1"/>
    <trip id="18" type="passenger" depart="18.00" from="41432519#1" to="19869689#2"/>
    <trip id="19" type="passenger" depart="19.00" from="52856856#1" to="158827838#4"/>
    <trip id="20" type="passenger" depart="20.00" from="23029167#1" to="-13449572#1"/>
    <trip id="21" type="passenger" depart="21.00" from="-23160026#1" to="-40567918#1"/>
    <trip id="22" type="passenger" depart="22.00" from="-13763475#2" to="-23949805#1"/>
    <trip id="23" type="passenger" depart="23.00" from="-14029429#2" to="-37873036#2"/>
    <trip id="24" type="passenger" depart="24.00" from="21553911#1" to="101453751#4"/>
    <trip id="25" type="passenger" depart="25.00" from="-957264362#2" to="-23029167#1"/>
    <trip id="26" type="passenger" depart="26.00" from="-27390599#6" to="846740177#0"/>
    <trip id="27" type="passenger" depart="27.00" from="22652401" to="19532368#0"/>
    <trip id="28" type="passenger" depart="28.00" from="-22772327#0" to="23554170#0"/>
    <trip id="29" type="passenger" depart="29.00" from="-22752261#0" to="11089071#0"/>
    <trip id="30" type="passenger" depart="30.00" from="9527214#1" to="22733438#1"/>
    <trip id="31" type="passenger" depart="31.00" from="14360093#1" to="22885405#8"/>
    <trip id="32" type="passenger" depart="32.00" from="44167796#3" to="27390599#5"/>
    <trip id="33" type="passenger" depart="33.00" from="-23160026#2" to="-123723623#1"/>
    <trip id="34" type="passenger" depart="34.00" from="-44168233#2" to="-306492918#2"/>
    <trip id="36" type="passenger" depart="36.00" from="71764022#2" to="-5666764#2"/>
    <trip id="37" type="passenger" depart="37.00" from="22751938#0" to="11362091#0"/>
    <trip id="38" type="passenger" depart="38.00" from="837587665#0" to="13449572#3"/>
    <trip id="39" type="passenger" depart="39.00" from="-27390599#2" to="-27390597#3"/>
    <trip id="40" type="passenger" depart="40.00" from="15219111" to="-30091060#1"/>
    <trip id="41" type="passenger" depart="41.00" from="158827838#0" to="745534441"/>
    <trip id="42" type="passenger" depart="42.00" from="11359644#0" to="-23160026#1"/>
    <trip id="43" type="passenger" depart="43.00" from="957264362#2" to="13768372"/>
    <trip id="44" type="passenger" depart="44.00" from="-13851237#3" to="-13449572#3"/>
    <trip id="45" type="passenger" depart="45.00" from="-15243952#1" to="21553911#2"/>
    <trip id="46" type="passenger" depart="46.00" from="306492914#0" to="123934092"/>
    <trip id="47" type="passenger" depart="47.00" from="-13636657#2" to="11089071#3"/>
    <trip id="48" type="passenger" depart="48.00" from="957264361#0" to="14029231"/>
    <trip id="49" type="passenger" depart="49.00" from="93667462" to="52856856#1"/>
    <trip id="51" type="passenger" depart="51.00" from="22885405#1" to="14359993#1"/>
    <trip id="52" type="passenger" depart="52.00" from="-27390599#5" to="22751907#0"/>
    <trip id="53" type="passenger" depart="53.00" from="-15243960#1" to="12629153#1"/>
    <trip id="54" type="passenger" depart="54.00" from="129749141#5" to="925611365#1"/>
    <trip id="55" type="passenger" depart="55.00" from="71764022#1" to="-306492913#0"/>
    <trip id="56" type="passenger" depart="56.00" from="13637284#5" to="-22883757#0"/>
    <trip id="57" type="passenger" depart="57.00" from="835377826" to="60419920#0"/>
    <trip id="58" type="passenger" depart="58.00" from="-40350186" to="22733437"/>
    <trip id="59" type="passenger" depart="59.00" from="17342783#3" to="-22650788#0"/>
    <trip id="60" type="passenger" depart="60.00" from="27326286#2" to="14359996#1"/>
    <trip id="61" type="passenger" depart="61.00" from="27390599#5" to="14029381#0"/>
    <trip id="63" type="passenger" depart="63.00" from="-1233443972" to="837617210"/>
    <trip id="65" type="passenger" depart="65.00" from="-42751606#1" to="-13636361#4"/>
    <trip id="67" type="passenger" depart="67.00" from="-13851237#1" to="13637284#3"/>
    <trip id="68" type="passenger" depart="68.00" from="-13714251#0" to="27326287#0"/>
    <trip id="69" type="passenger" depart="69.00" from="27326287#3" to="-17342783#2"/>
    <trip id="70" type="passenger" depart="70.00" from="13632858#1" to="15219120#0"/>
    <trip id="71" type="passenger" depart="71.00" from="-27390599#2" to="60419920#2"/>
    <trip id="72" type="passenger" depart="72.00" from="1235921272#0" to="-23029167#4"/>
    <trip id="73" type="passenger" depart="73.00" from="13860680" to="23554170#1"/>
    <trip id="74" type="passenger" depart="74.00" from="-22885426#0" to="-5666762#6"/>
    <trip id="75" type="passenger" depart="75.00" from="957264358" to="22761636#0"/>
    <trip id="76" type="passenger" depart="76.00" from="123934093#1" to="13851237#11"/>
    <trip id="77" type="passenger" depart="77.00" from="-162799385" to="-23172901#0"/>
    <trip id="78" type="passenger" depart="78.00" from="-763542554" to="165842351"/>
    <trip id="79" type="passenger" depart="79.00" from="-23160026#4" to="-23160026#3"/>
    <trip id="80" type="passenger" depart="80.00" from="-13714251#2" to="22650787#2"/>
    <trip id="81" type="passenger" depart="81.00" from="-23160026#2" to="7817454"/>
    <trip id="82" type="passenger" depart="82.00" from="510841455#1" to="-13714251#0"/>
    <trip id="83" type="passenger" depart="83.00" from="-23263465#1" to="22883757#0"/>
    <trip id="84" type="passenger" depart="84.00" from="-22974101#4" to="-17353784#0"/>
    <trip id="85" type="passenger" depart="85.00" from="846740177#0" to="158827830#2"/>
    <trip id="87" type="passenger" depart="87.00" from="37873038#1" to="-22885405#6"/>
    <trip id="88" type="passenger" depart="88.00" from="-14029381#0" to="12628117#0"/>
    <trip id="89" type="passenger" depart="89.00" from="1235921272#0" to="13635017#1"/>
    <trip id="90" type="passenger" depart="90.00" from="23369526" to="22884183#0"/>
    <trip id="91" type="passenger" depart="91.00" from="9527212#3" to="-13860685#1"/>
    <trip id="92" type="passenger" depart="92.00" from="11361974#0" to="-936407800#1"/>
    <trip id="93" type="passenger" depart="93.00" from="52856856#1" to="-27390597#6"/>
    <trip id="94" type="passenger" depart="94.00" from="-22885392#1" to="13304339#1"/>
    <trip id="95" type="passenger" depart="95.00" from="1217914837" to="-37873037#0"/>
    <trip id="96" type="passenger" depart="96.00" from="-27326286#1" to="837596443"/>
    <trip id="97" type="passenger" depart="97.00" from="12624743#0" to="5666762#0"/>
    <trip id="98" type="passenger" depart="98.00" from="14359993#3" to="-13635017#0"/>
    <trip id="99" type="passenger" depart="99.00" from="99717269" to="42751606#2"/>
    <trip id="100" type="passenger" depart="100.00" from="936407800#1" to="837596448#1"/>
    <trip id="101" type="passenger" depart="101.00" from="44168233#2" to="-22772326#0"/>
    <trip id="102" type="passenger" depart="102.00" from="13635180" to="-23035876#1"/>
    <trip id="103" type="passenger" depart="103.00" from="11359735" to="-13636361#5"/>
    <trip id="104" type="passenger" depart="104.00" from="1079249630" to="9527212#1"/>
    <trip id="106" type="passenger" depart="106.00" from="129779314#1" to="123934093#1"/>
    <trip id="107" type="passenger" depart="107.00" from="925611368#0" to="957264357#1"/>
    <trip id="108" type="passenger" depart="108.00" from="14360093#0" to="23172901#0"/>
    <trip id="109" type="passenger" depart="109.00" from="-22650788#1" to="-44167796#2"/>
    <trip id="110" type="passenger" depart="110.00" from="936407800#1" to="160132537#0"/>
    <trip id="111" type="passenger" depart="111.00" from="14028858#1" to="26433267"/>
    <trip id="112" type="passenger" depart="112.00" from="-13636619#0" to="160132540"/>
    <trip id="113" type="passenger" depart="113.00" from="13714251#1" to="460047568#3"/>
    <trip id="114" type="passenger" depart="114.00" from="-22650820#2" to="936407779#0"/>
    <trip id="115" type="passenger" depart="115.00" from="-13763475#2" to="-22885401#3"/>
    <trip id="116" type="passenger" depart="116.00" from="160132540" to="22885392#2"/>
    <trip id="117" type="passenger" depart="117.00" from="-23172901#2" to="-162799385"/>
    <trip id="118" type="passenger" depart="118.00" from="745358395#3" to="-27390597#3"/>
    <trip id="119" type="passenger" depart="119.00" from="160132538" to="19869702#1"/>
    <trip id="120" type="passenger" depart="120.00" from="1217910337" to="160132538"/>
    <trip id="121" type="passenger" depart="121.00" from="13850989#0" to="842131938"/>
    <trip id="122" type="passenger" depart="122.00" from="-22885440#0" to="23172897#0"/>
    <trip id="123" type="passenger" depart="123.00" from="-23263465#1" to="11362091#0"/>
    <trip id="124" type="passenger" depart="124.00" from="22883730#1" to="-44167800#2"/>
    <trip id="125" type="passenger" depart="125.00" from="-4570971" to="26625171#2"/>
    <trip id="126" type="passenger" depart="126.00" from="-13714287#1" to="13449572#3"/>
    <trip id="127" type="passenger" depart="127.00" from="96897381" to="957264358"/>
    <trip id="128" type="passenger" depart="128.00" from="-13714287#2" to="-23035872#3"/>
    <trip id="129" type="passenger" depart="129.00" from="-27390599#2" to="842131929#3"/>
    <trip id="130" type="passenger" depart="130.00" from="71764023#4" to="71764023#2"/>
    <trip id="131" type="passenger" depart="131.00" from="-957264362#0" to="-22652390"/>
    <trip id="132" type="passenger" depart="132.00" from="42751606#0" to="23029167#2"/>
    <trip id="133" type="passenger" depart="133.00" from="17343940#0" to="9527212#5"/>
    <trip id="134" type="passenger" depart="134.00" from="22751911#0" to="-11089071#2"/>
    <trip id="135" type="passenger" depart="135.00" from="40350183" to="-44167800#2"/>
    <trip id="136" type="passenger" depart="136.00" from="22775563" to="846740182"/>
    <trip id="137" type="passenger" depart="137.00" from="-17343940#2" to="-158827838#1"/>
    <trip id="138" type="passenger" depart="138.00" from="-15219120#0" to="15243960#0"/>
    <trip id="140" type="passenger" depart="140.00" from="23160026#4" to="-22974101#3"/>
    <trip id="141" type="passenger" depart="141.00" from="20887282#1" to="-306492913#1"/>
    <trip id="142" type="passenger" depart="142.00" from="13636361#5" to="7817454"/>
    <trip id="143" type="passenger" depart="143.00" from="44168184#0" to="-13851237#3"/>
    <trip id="144" type="passenger" depart="144.00" from="1235921272#0" to="-37873036#1"/>
    <trip id="145" type="passenger" depart="145.00" from="-1083583071#1" to="27390597#9"/>
    <trip id="146" type="passenger" depart="146.00" from="21990971#0" to="-30091060#0"/>
    <trip id="147" type="passenger" depart="147.00" from="23613256#2" to="15243952#1"/>
    <trip id="148" type="passenger" depart="148.00" from="123699344#0" to="-11089071#4"/>
    <trip id="149" type="passenger" depart="149.00" from="-13758847#1" to="71764024"/>
    <trip id="151" type="passenger" depart="151.00" from="42751606#1" to="160132537#4"/>
    <trip id="152" type="passenger" depart="152.00" from="-21553911#0" to="-17342783#1"/>
    <trip id="153" type="passenger" depart="153.00" from="-42751606#2" to="745534443"/>
    <trip id="154" type="passenger" depart="154.00" from="306492918#4" to="52856856#1"/>
    <trip id="155" type="passenger" depart="155.00" from="745534445" to="-23029167#2"/>
    <trip id="156" type="passenger" depart="156.00" from="-27326286#1" to="-14029429#2"/>
    <trip id="157" type="passenger" depart="157.00" from="27390599#7" to="723613339#1"/>
    <trip id="158" type="passenger" depart="158.00" from="11362056#2" to="20340937#1"/>
    <trip id="159" type="passenger" depart="159.00" from="-22650788#1" to="837617213"/>
    <trip id="160" type="passenger" depart="160.00" from="5666762#3" to="93671301"/>
    <trip id="162" type="passenger" depart="162.00" from="-123699341" to="23613256#0"/>
    <trip id="164" type="passenger" depart="164.00" from="37873035" to="5666762#3"/>
    <trip id="165" type="passenger" depart="165.00" from="37873040" to="-306492918#1"/>
    <trip id="166" type="passenger" depart="166.00" from="30091060#1" to="-15219120#0"/>
    <trip id="167" type="passenger" depart="167.00" from="60419920#1" to="510841455#0"/>
    <trip id="168" type="passenger" depart="168.00" from="-23035872#1" to="40350183"/>
    <trip id="169" type="passenger" depart="169.00" from="1327110230#0" to="-471199746#3"/>
    <trip id="170" type="passenger" depart="170.00" from="306492918#3" to="-23263314"/>
    <trip id="171" type="passenger" depart="171.00" from="-123699324" to="-22885426#0"/>
    <trip id="172" type="passenger" depart="172.00" from="-5666764#2" to="5666762#3"/>
    <trip id="173" type="passenger" depart="173.00" from="936407794" to="-37873037#1"/>
    <trip id="174" type="passenger" depart="174.00" from="22650788#0" to="119617011#2"/>
    <trip id="175" type="passenger" depart="175.00" from="94111384#3" to="14359993#0"/>
    <trip id="176" type="passenger" depart="176.00" from="846740184#1" to="-158827838#1"/>
    <trip id="177" type="passenger" depart="177.00" from="936407802#1" to="-22883757#0"/>
    <trip id="178" type="passenger" depart="178.00" from="936407785#0" to="-306492914#1"/>
    <trip id="179" type="passenger" depart="179.00" from="-15219120#1" to="12629153#0"/>
    <trip id="180" type="passenger" depart="180.00" from="23369526" to="-5666764#0"/>
    <trip id="181" type="passenger" depart="181.00" from="17342783#0" to="13851048#1"/>
    <trip id="182" type="passenger" depart="182.00" from="1083583071#1" to="158827838#3"/>
    <trip id="183" type="passenger" depart="183.00" from="-27326287#4" to="23043574"/>
    <trip id="184" type="passenger" depart="184.00" from="-101453737#2" to="837596446"/>
    <trip id="185" type="passenger" depart="185.00" from="13860630" to="23172901#2"/>
    <trip id="186" type="passenger" depart="186.00" from="23613256#2" to="22883757#2"/>
    <trip id="187" type="passenger" depart="187.00" from="-9527214#1" to="-13637284#4"/>
    <trip id="188" type="passenger" depart="188.00" from="22821920" to="-835377827"/>
    <trip id="189" type="passenger" depart="189.00" from="-44168233#0" to="44168233#2"/>
    <trip id="190" type="passenger" depart="190.00" from="23172897#0" to="-44168233#0"/>
    <trip id="191" type="passenger" depart="191.00" from="-44167796#1" to="1217914837"/>
    <trip id="192" type="passenger" depart="192.00" from="11361974#0" to="-44167796#1"/>
    <trip id="193" type="passenger" depart="193.00" from="-17342746#2" to="123934090#3"/>
    <trip id="194" type="passenger" depart="194.00" from="846740184#2" to="22885401#1"/>
    <trip id="195" type="passenger" depart="195.00" from="7817453" to="19588990#6"/>
    <trip id="196" type="passenger" depart="196.00" from="-40567896#1" to="15219108"/>
    <trip id="197" type="passenger" depart="197.00" from="-101453737#0" to="-40567884"/>
    <trip id="198" type="passenger" depart="198.00" from="123699344#2" to="160132537#1"/>
    <trip id="199" type="passenger" depart="199.00" from="22751911#1" to="13632910#0"/>
    <trip id="200" type="passenger" depart="200.00" from="1258971569" to="-23035872#3"/>
    <trip id="201" type="passenger" depart="201.00" from="13451018" to="745534453"/>
    <trip id="202" type="passenger" depart="202.00" from="306492918#4" to="-22775563"/>
    <trip id="203" type="passenger" depart="203.00" from="-13851237#0" to="13851237#1"/>
    <trip id="204" type="passenger" depart="204.00" from="20887282#0" to="-936407788"/>
    <trip id="205" type="passenger" depart="205.00" from="40350186" to="26624955#0"/>
    <trip id="206" type="passenger" depart="206.00" from="22883730#2" to="-23172901#0"/>
    <trip id="207" type="passenger" depart="207.00" from="-22885405#6" to="-1235921273"/>
    <trip id="208" type="passenger" depart="208.00" from="-24389280#1" to="13636361#5"/>
    <trip id="209" type="passenger" depart="209.00" from="451856035" to="-13714287#0"/>
    <trip id="210" type="passenger" depart="210.00" from="119617364#0" to="22650146#2"/>
    <trip id="211" type="passenger" depart="211.00" from="-22885401#3" to="22974101#1"/>
    <trip id="212" type="passenger" depart="212.00" from="13636657#0" to="-27326287#4"/>
    <trip id="214" type="passenger" depart="214.00" from="26433272#0" to="27390597#7"/>
    <trip id="215" type="passenger" depart="215.00" from="-15219111" to="124183463#2"/>
    <trip id="216" type="passenger" depart="216.00" from="-22883401#0" to="925611367#1"/>
    <trip id="217" type="passenger" depart="217.00" from="13763475#1" to="-13635017#0"/>
    <trip id="218" type="passenger" depart="218.00" from="-27326286#1" to="44168233#2"/>
    <trip id="219" type="passenger" depart="219.00" from="129779314#2" to="37873036#0"/>
    <trip id="220" type="passenger" depart="220.00" from="22883463" to="9527212#5"/>
    <trip id="221" type="passenger" depart="221.00" from="160132540" to="925592929"/>
    <trip id="222" type="passenger" depart="222.00" from="745534427" to="19588990#2"/>
    <trip id="224" type="passenger" depart="224.00" from="41885836#0" to="15219108"/>
    <trip id="225" type="passenger" depart="225.00" from="745534443" to="24824465"/>
    <trip id="226" type="passenger" depart="226.00" from="13632858#0" to="-27545815#0"/>
    <trip id="227" type="passenger" depart="227.00" from="-27326285#1" to="22677529#0"/>
    <trip id="228" type="passenger" depart="228.00" from="27326287#3" to="13851237#3"/>
    <trip id="229" type="passenger" depart="229.00" from="19869689#1" to="-37090837#1"/>
    <trip id="230" type="passenger" depart="230.00" from="-137611769#3" to="-40350186"/>
    <trip id="232" type="passenger" depart="232.00" from="13860685#0" to="-19869689#0"/>
    <trip id="233" type="passenger" depart="233.00" from="-23160026#5" to="22963000#7"/>
    <trip id="234" type="passenger" depart="234.00" from="23029167#3" to="-13636654#3"/>
    <trip id="235" type="passenger" depart="235.00" from="11362091#1" to="14360058#2"/>
    <trip id="236" type="passenger" depart="236.00" from="1216629059" to="-22974106#1"/>
    <trip id="237" type="passenger" depart="237.00" from="1217910338" to="7817453"/>
    <trip id="238" type="passenger" depart="238.00" from="158827836" to="22964000"/>
    <trip id="239" type="passenger" depart="239.00" from="471199746#4" to="27390597#2"/>
    <trip id="240" type="passenger" depart="240.00" from="1083291659#0" to="-11089071#0"/>
    <trip id="241" type="passenger" depart="241.00" from="-936407800#0" to="26625171#4"/>
    <trip id="242" type="passenger" depart="242.00" from="460047568#3" to="925611365#1"/>
    <trip id="243" type="passenger" depart="243.00" from="1217910337" to="26432734#4"/>
    <trip id="244" type="passenger" depart="244.00" from="14029429#0" to="17343940#1"/>
    <trip id="245" type="passenger" depart="245.00" from="-23029167#3" to="-23160026#2"/>
    <trip id="246" type="passenger" depart="246.00" from="123934090#4" to="-123699344#0"/>
    <trip id="248" type="passenger" depart="248.00" from="11361974#2" to="-22752300#1"/>
    <trip id="249" type="passenger" depart="249.00" from="13443908#0" to="-17342783#1"/>
    <trip id="250" type="passenger" depart="250.00" from="19588990#3" to="-123699324"/>
    <trip id="251" type="passenger" depart="251.00" from="11089071#4" to="15808517"/>
    <trip id="252" type="passenger" depart="252.00" from="-123699344#1" to="22751911#1"/>
    <trip id="253" type="passenger" depart="253.00" from="-17353784#1" to="13632858#1"/>
    <trip id="254" type="passenger" depart="254.00" from="-13635176#2" to="11089071#0"/>
    <trip id="255" type="passenger" depart="255.00" from="-22964000" to="-831851224#1"/>
    <trip id="256" type="passenger" depart="256.00" from="27326286#0" to="11089071#0"/>
    <trip id="257" type="passenger" depart="257.00" from="26433273#0" to="41885836#1"/>
    <trip id="258" type="passenger" depart="258.00" from="-27326287#1" to="-13763475#3"/>
    <trip id="259" type="passenger" depart="259.00" from="-1233443972" to="14359996#1"/>
    <trip id="260" type="passenger" depart="260.00" from="99717269" to="-9527212#6"/>
    <trip id="261" type="passenger" depart="261.00" from="22677529#1" to="27545815#2"/>
    <trip id="262" type="passenger" depart="262.00" from="22733438#1" to="26745699#0"/>
    <trip id="263" type="passenger" depart="263.00" from="925611364#0" to="-22963000#2"/>
    <trip id="264" type="passenger" depart="264.00" from="-1235505077" to="-22650787#2"/>
    <trip id="265" type="passenger" depart="265.00" from="-17342746#1" to="22883757#1"/>
    <trip id="266" type="passenger" depart="266.00" from="15243952#0" to="-23160026#0"/>
    <trip id="267" type="passenger" depart="267.00" from="22974103" to="27390597#3"/>
    <trip id="268" type="passenger" depart="268.00" from="-22761636#1" to="17364035#1"/>
    <trip id="269" type="passenger" depart="269.00" from="26432734#2" to="-158827838#0"/>
    <trip id="270" type="passenger" depart="270.00" from="40487734#0" to="936407785#1"/>
    <trip id="271" type="passenger" depart="271.00" from="-15219120#1" to="-123699313#0"/>
    <trip id="272" type="passenger" depart="272.00" from="-44167800#1" to="22885401#1"/>
    <trip id="273" type="passenger" depart="273.00" from="925611369" to="11362091#1"/>
    <trip id="274" type="passenger" depart="274.00" from="23160026#1" to="-13758847#1"/>
    <trip id="275" type="passenger" depart="275.00" from="22885440#0" to="21553911#1"/>
    <trip id="276" type="passenger" depart="276.00" from="-14029429#3" to="27390598"/>
    <trip id="277" type="passenger" depart="277.00" from="451856035" to="17342915"/>
    <trip id="278" type="passenger" depart="278.00" from="-162799385" to="94111384#3"/>
    <trip id="279" type="passenger" depart="279.00" from="27545815#1" to="-9527212#3"/>
    <trip id="280" type="passenger" depart="280.00" from="123699344#0" to="1083583068#1"/>
    <trip id="281" type="passenger" depart="281.00" from="13714287#2" to="-93667462"/>
    <trip id="282" type="passenger" depart="282.00" from="44362723#0" to="40567896#0"/>
    <trip id="283" type="passenger" depart="283.00" from="-15219108" to="936407779#0"/>
    <trip id="284" type="passenger" depart="284.00" from="21553911#1" to="41432519#0"/>
    <trip id="285" type="passenger" depart="285.00" from="23029167#4" to="1290772727"/>
    <trip id="286" type="passenger" depart="286.00" from="23554170#1" to="936407785#2"/>
    <trip id="287" type="passenger" depart="287.00" from="-27545815#0" to="37873038#3"/>
    <trip id="288" type="passenger" depart="288.00" from="13860630" to="13637284#0"/>
    <trip id="289" type="passenger" depart="289.00" from="123934090#3" to="23581195#0"/>
    <trip id="290" type="passenger" depart="290.00" from="-27390599#7" to="460047568#2"/>
    <trip id="291" type="passenger" depart="291.00" from="41885836#0" to="-13851237#1"/>
    <trip id="293" type="passenger" depart="293.00" from="133210304#1" to="19532368#1"/>
    <trip id="294" type="passenger" depart="294.00" from="1079249630" to="-123699344#0"/>
    <trip id="295" type="passenger" depart="295.00" from="4570971" to="-22885392#1"/>
    <trip id="296" type="passenger" depart="296.00" from="-22964000" to="31716720#2"/>
    <trip id="298" type="passenger" depart="298.00" from="22974106#0" to="-37873036#0"/>
    <trip id="299" type="passenger" depart="299.00" from="-11089071#5" to="889996862#0"/>
    <trip id="300" type="passenger" depart="300.00" from="-13851237#1" to="23172901#2"/>
    <trip id="301" type="passenger" depart="301.00" from="13636361#5" to="27326286#0"/>
    <trip id="302" type="passenger" depart="302.00" from="22885440#0" to="22751938#1"/>
    <trip id="303" type="passenger" depart="303.00" from="13636619#2" to="306492918#1"/>
    <trip id="304" type="passenger" depart="304.00" from="-13851237#7" to="-23160026#4"/>
    <trip id="305" type="passenger" depart="305.00" from="22885440#1" to="-471199746#4"/>
    <trip id="306" type="passenger" depart="306.00" from="158827830#0" to="13635180"/>
    <trip id="307" type="passenger" depart="307.00" from="13851237#12" to="124183463#2"/>
    <trip id="309" type="passenger" depart="309.00" from="22974118" to="-31716720#0"/>
    <trip id="310" type="passenger" depart="310.00" from="-27326287#0" to="-17238246#0"/>
    <trip id="311" type="passenger" depart="311.00" from="-22885401#1" to="-162799385"/>
    <trip id="312" type="passenger" depart="312.00" from="13851237#7" to="27326287#2"/>
    <trip id="313" type="passenger" depart="313.00" from="-22883757#0" to="-23107918#1"/>
    <trip id="314" type="passenger" depart="314.00" from="13635178#0" to="23263465#1"/>
    <trip id="315" type="passenger" depart="315.00" from="93671304#2" to="13851237#9"/>
    <trip id="316" type="passenger" depart="316.00" from="-31716720#1" to="-14029381#1"/>
    <trip id="317" type="passenger" depart="317.00" from="-22885401#3" to="-23263314"/>
    <trip id="318" type="passenger" depart="318.00" from="-22883684#1" to="-1138256324#0"/>
    <trip id="319" type="passenger" depart="319.00" from="13851237#3" to="-37090837#1"/>
    <trip id="320" type="passenger" depart="320.00" from="93671304#0" to="15243960#1"/>
    <trip id="321" type="passenger" depart="321.00" from="22963000#8" to="-17342746#2"/>
    <trip id="322" type="passenger" depart="322.00" from="5666764#0" to="13714251#1"/>
    <trip id="323" type="passenger" depart="323.00" from="60419920#2" to="158827838#0"/>
    <trip id="324" type="passenger" depart="324.00" from="13443908#2" to="129779314#0"/>
    <trip id="325" type="passenger" depart="325.00" from="-22883730#3" to="-13635176#0"/>
    <trip id="326" type="passenger" depart="326.00" from="846740185#0" to="13636619#2"/>
    <trip id="327" type="passenger" depart="327.00" from="40567884" to="119617011#3"/>
    <trip id="328" type="passenger" depart="328.00" from="-13758847#0" to="22650146#2"/>
    <trip id="329" type="passenger" depart="329.00" from="-13635178#1" to="-22650146#2"/>
    <trip id="330" type="passenger" depart="330.00" from="15219120#1" to="-471199746#1"/>
    <trip id="331" type="passenger" depart="331.00" from="957264357#1" to="-158827838#4"/>
    <trip id="332" type="passenger" depart="332.00" from="27326287#1" to="17353804#0"/>
    <trip id="333" type="passenger" depart="333.00" from="306492913#0" to="-23172901#1"/>
    <trip id="334" type="passenger" depart="334.00" from="13850989#0" to="133210304#0"/>
    <trip id="335" type="passenger" depart="335.00" from="1258971569" to="52856170"/>
    <trip id="336" type="passenger" depart="336.00" from="9527217" to="-471199746#3"/>
    <trip id="337" type="passenger" depart="337.00" from="19588990#1" to="19532368#0"/>
    <trip id="338" type="passenger" depart="338.00" from="23613256#0" to="889996862#0"/>
    <trip id="339" type="passenger" depart="339.00" from="-22963000#2" to="-23029167#3"/>
    <trip id="340" type="passenger" depart="340.00" from="22772326#0" to="-22652386"/>
    <trip id="341" type="passenger" depart="341.00" from="-22775567" to="-13758847#0"/>
    <trip id="342" type="passenger" depart="342.00" from="-1083583071#0" to="133210304#0"/>